ROCKS--->https://www.assetstore.unity3d.com/#/content/651

ROCKS--->https://www.assetstore.unity3d.com/#/content/3618

ROCKS--->https://www.assetstore.unity3d.com/#/content/65

ROCKS--->https://www.assetstore.unity3d.com/#/content/4321

SCULPTURES/FONTAINE--->https://www.assetstore.unity3d.com/#/content/265

SCULPTURES/FONTAINE--->https://www.assetstore.unity3d.com/#/content/852

BRICK SET--->https://www.assetstore.unity3d.com/#/content/46

WELL--->https://www.assetstore.unity3d.com/#/content/4477

COINS--->https://www.assetstore.unity3d.com/#/content/1810

CART--->https://www.assetstore.unity3d.com/#/content/677

PLANTS--->https://www.assetstore.unity3d.com/#/content/4049

AI---->https://www.assetstore.unity3d.com/#/content/6563

SOUND MANAGER---->https://www.assetstore.unity3d.com/#/content/9582

IN-GAME GUIDO---->https://www.assetstore.unity3d.com/#/content/7563

TERRAIN SHADER---->https://www.assetstore.unity3d.com/#/content/929

SKY--->https://www.assetstore.unity3d.com/#/content/4042

PLANCHER---->https://www.assetstore.unity3d.com/#/content/5996

ANIMATION---->https://www.assetstore.unity3d.com/#/content/5330)

TEXTURES---->http://archivetextures.net/

